212
frame 0 | Written by MDAnalysis XYZWriter (release 2.4.3)
       H     0.43800    1.14400   11.09700
       H     1.47100    0.08900   11.06300
       H    10.27300    7.23400    0.85800
       H    10.72900    7.31100    2.31500
       H     3.73800   13.25800    4.91700
       H     2.88800   13.18800    6.15700
       H     5.16200    1.96400   13.45100
       H     6.18600    0.85700   13.96600
       H     1.60800    5.16900   -0.48500
       H     2.21900    6.36600    0.08300
       H     6.27000    2.05500    5.57100
       H     6.80100    2.06100    6.94400
       H    11.90500    0.88000   -0.04100
       H    11.95800   -0.11100    1.11600
       H     4.25500    6.79200    3.78300
       H     3.68600    7.40400    2.40400
       H     3.04400    5.23600    3.13900
       H     3.52400    3.85900    3.07300
       H     3.26000    6.72900    6.54200
       H     1.75300    7.32400    6.44300
       H     2.94200    3.84500    6.88600
       H     3.67600    3.05200    5.70400
       H     7.95600   10.34400    8.27600
       H     8.57100   11.70900    8.71800
       H     2.50500    1.21900    3.63700
       H     1.28000    1.06200    4.75100
       H     9.41200   10.19700    3.07800
       H    10.21900    9.16100    2.22600
       H     7.23500    4.10400    5.23600
       H     8.47000    4.92400    5.57100
       H     9.98400    2.97100    7.67000
       H     9.38100    1.63900    8.06100
       H    12.35200    1.19000    5.96400
       H    12.12100    0.83200    4.48100
       H     3.90500    5.71900    0.45300
       H     5.03100    6.63900    0.01300
       H    11.63900    1.61400    9.20500
       H    11.05600    2.08300   10.53000
       H    -0.27300    2.13300    1.24400
       H     0.64900    1.80900    2.56200
       H     3.68400   12.96700   12.43500
       H     4.96900   13.70900   12.18500
       H    12.24700    4.45000    1.38100
       H    12.36300    5.24600    2.80300
       H     6.89100    8.44200    0.94000
       H     8.04100    9.13600    1.80800
       H    10.42500   10.39000   10.34800
       H     9.68200    9.11700   10.50400
       H    10.09200    1.06500    2.67500
       H    10.28900   -0.45500    2.76500
       H     8.56800    2.65100    3.46400
       H     9.77700    3.72800    3.91100
       H     3.87800    9.78200    6.08600
       H     3.29900   11.12800    5.47700
       H     3.41400    1.74000    8.84700
       H     2.31200    0.72200    8.55700
       H     7.98800   13.24900    1.69500
       H     7.45500   12.17800    0.70100
       H     0.43100    4.14800    7.43100
       H     1.19200    4.50000    8.74200
       H     4.05900    6.13400   10.53400
       H     4.03100    7.13200   11.73200
       H     0.00600    8.69600    4.89600
       H     0.76200    9.62800    3.88600
       H     2.21800   11.59900    1.06700
       H     1.31100   12.66200    1.79500
       H     8.13800   13.15000    3.80700
       H     7.26400   13.66700    5.04100
       H     8.61000    4.75200    1.53100
       H     8.00400    5.75700    0.50400
       H     9.54300    7.19200    6.63200
       H     8.53500    7.26200    7.81200
       H    11.08400   10.03700    5.48400
       H    12.45200   10.39300    6.06500
       H    10.17100    5.67500    7.73300
       H    11.31000    5.09300    6.89900
       H     3.54000   -0.43800    2.33000
       H     4.22600    0.88200    2.51300
       H     1.35900    8.47000    1.38300
       H     0.52800    8.09100    2.58900
       H    11.83000   12.15100   10.06600
       H    10.85100   12.62000   11.12100
       H     2.21800   11.53100    8.73600
       H     2.75300   10.30500    9.38400
       H     5.63000    2.73000    9.21700
       H     7.15300    2.60600    9.44600
       H     8.55300    9.08600    5.51600
       H     7.57300    9.85700    4.54500
       H     3.07800    8.44400    8.21300
       H     3.16100    8.11100    9.84300
       H    13.27800    9.55700   10.68100
       H    11.90800    9.03200   10.15700
       H     8.00300    6.15600    9.82000
       H     8.68800    4.78000    9.31300
       H     7.72500    4.69100   11.93100
       H     6.27500    4.13900   11.46400
       H     5.56800   10.84000   10.73100
       H     5.20100   10.15800   12.04100
       H     3.35200    2.91200   -0.26300
       H     3.65000    3.06800    1.26500
       H    12.54300    5.97500   11.76100
       H    13.12400    7.48200   11.73700
       H     5.94700    7.92900    5.29300
       H     6.35500    6.39700    5.36700
       H     6.04400    9.74400    2.62900
       H     4.79800    9.94100    3.45800
       H    12.54800    9.65400    1.08900
       H    12.43100    9.57700   -0.47900
       H     0.34400   11.17900    7.44600
       H     1.50000   10.40200    6.55600
       H     5.06300    6.57200    7.68000
       H     4.37600    5.24700    8.52400
       H     6.56700   12.73300    9.20000
       H     6.03000   11.83700    8.09300
       H     8.71500   11.88800   12.23100
       H     7.86800   10.61300   12.13200
       H    10.77500   12.77600    6.37700
       H     9.62000   13.32000    7.22000
       H    -0.02200    6.41800    7.78800
       H    -0.84000    7.66900    7.19700
       H    10.74200    6.21400   10.54600
       H    10.59700    4.83200   11.27300
       H    12.63900    3.22400    5.36600
       H    12.78900    4.77500    5.47300
       H     0.73900    3.12300   11.55900
       H    -0.50500    3.57800   12.32600
       H     1.72300   10.23100   12.27900
       H     1.67000   11.03500   11.00200
      Li    10.09600   10.37300    0.45600
      Li     5.98100    8.20200   10.54300
      Li    10.29200    9.40800    7.93500
      Li     1.23200    4.17900    1.55100
      Li    12.72600    6.82100    0.86500
      Li     6.28600    4.41500    0.44100
      Li     5.83100   12.33900    3.03800
      Li     8.43800   11.57300    5.96800
      Li     6.86000    4.49400    7.72600
      Li    13.13200   12.13700   12.35900
      Li    12.00100    4.31800    9.22800
      Li    10.01600    1.79100    5.28500
      Li     2.60200    8.37600    4.50600
      Li     1.53200    3.44100    4.86500
      Li     7.62500    2.14000   12.44200
      Li     7.18500    6.97900    2.94000
      Li     1.63700    1.00000    0.23700
      Li     4.03900   12.74700    9.82300
      Li     0.65900    8.78400    8.69400
      Li     4.85700    0.52600    7.20200
       O     0.91600    0.51300   11.74000
       O    10.96900    7.64900    1.41500
       O     3.79200   12.95700    5.86100
       O     5.97400    1.48200   13.12400
       O     2.20800    5.39100    0.20800
       O     6.40300    1.44800    6.30600
       O    12.49600    0.17300    0.34600
       O     3.43600    7.14100    3.35000
       O     2.64000    4.34900    3.15200
       O     2.71400    7.47200    6.27300
       O     2.84700    3.11400    6.24200
       O     8.60600   10.98700    8.03500
       O     1.69300    1.59800    4.02400
       O     9.55900    9.90900    2.17900
       O     7.60000    4.65900    5.94000
       O     9.46500    2.23400    7.26400
       O    12.01400    1.58000    5.14400
       O     4.84200    5.83100    0.53800
       O    11.64100    2.40900    9.84600
       O     0.62400    2.26500    1.65900
       O     4.30000   13.17700   11.71300
       O    12.87600    5.02000    1.97000
       O     7.16600    8.65100    1.82800
       O    10.37700    9.48000    9.97900
       O     9.61900    0.22800    2.55500
       O     9.49500    2.77200    3.80200
       O     3.13200   10.12100    5.53900
       O     3.27300    0.81800    8.57100
       O     7.19400   12.76600    1.42600
       O     0.35500    4.71300    8.25900
       O     4.26500    7.03100   10.80400
       O     0.73600    8.68400    4.26100
       O     2.09000   12.60000    1.16700
       O     7.32800   12.93400    4.32500
       O     7.77800    5.26400    1.36700
       O     9.38400    7.65000    7.48900
       O    11.57300    9.92600    6.30900
       O    10.80700    4.93700    7.72500
       O     4.01600    0.10500    3.02600
       O     0.45300    8.17900    1.61900
       O    11.42900   11.87300   10.87700
       O     2.71400   11.29400    9.59300
       O     6.51700    2.92700    8.75000
       O     8.44200    9.90200    5.01700
       O     2.71200    8.58800    9.09600
       O    12.95200    8.86600   10.12100
       O     7.93700    5.40200    9.11600
       O     7.03100    3.96500   12.01000
       O     5.84900   10.10000   11.29900
       O     3.52900    2.37600    0.55900
       O    13.09700    6.65700   12.25200
       O     6.18700    7.12700    4.70100
       O     5.56900   10.46700    3.21000
       O    12.22500   10.18200    0.29100
       O     0.76200   10.28000    7.26100
       O     4.80200    5.56300    7.63700
       O     5.76500   12.51400    8.72300
       O     8.51500   11.04300   12.68200
       O     9.84700   13.04500    6.33000
       O     0.02900    7.32000    7.27100
       O    11.24800    5.38500   10.75800
       O    13.30000    3.94200    5.60800
       O     0.47300    3.47100   12.40800
       O     1.05700   10.74500   11.71400
212
frame 1 | Written by MDAnalysis XYZWriter (release 2.4.3)
       H     0.44085    1.14379   11.10999
       H     1.47347    0.08157   11.05721
       H    10.27416    7.23275    0.85714
       H    10.73606    7.29984    2.30378
       H     3.73324   13.25002    4.90409
       H     2.89763   13.19552    6.15682
       H     5.16082    1.96162   13.45331
       H     6.17768    0.86210   13.97341
       H     1.60074    5.15911   -0.47660
       H     2.20293    6.36678    0.08493
       H     6.26828    2.04493    5.57164
       H     6.80680    2.05422    6.93689
       H    11.91422    0.87397   -0.03716
       H    11.97473   -0.12107    1.12679
       H     4.25211    6.78219    3.78240
       H     3.70379    7.40860    2.40620
       H     3.04744    5.22572    3.14536
       H     3.52603    3.86807    3.06734
       H     3.27092    6.72606    6.54918
       H     1.74500    7.33327    6.43785
       H     2.95738    3.84630    6.89266
       H     3.67137    3.05232    5.70496
       H     7.95722   10.34369    8.28165
       H     8.56266   11.70589    8.71856
       H     2.49877    1.21594    3.64187
       H     1.26953    1.06943    4.74874
       H     9.41198   10.19427    3.07981
       H    10.20957    9.16507    2.22979
       H     7.23118    4.10124    5.22249
       H     8.46741    4.92055    5.57361
       H     9.97575    2.98175    7.67522
       H     9.38073    1.65100    8.07808
       H    12.36241    1.19422    5.96753
       H    12.11336    0.81302    4.47417
       H     3.90303    5.71854    0.45201
       H     5.02778    6.64068    0.02066
       H    11.63931    1.62651    9.21011
       H    11.04220    2.09280   10.52658
       H    -0.26563    2.13794    1.24635
       H     0.63544    1.80862    2.56980
       H     3.68177   12.96675   12.42802
       H     4.95548   13.71232   12.17272
       H    12.24623    4.46312    1.39006
       H    12.38122    5.23008    2.78938
       H     6.88967    8.43923    0.93978
       H     8.02564    9.13226    1.81142
       H    10.43398   10.39220   10.35980
       H     9.67931    9.11982   10.51075
       H    10.09233    1.06877    2.68445
       H    10.29330   -0.46431    2.75890
       H     8.57701    2.65356    3.45487
       H     9.76743    3.74032    3.90563
       H     3.89228    9.79037    6.08702
       H     3.31065   11.10678    5.47761
       H     3.40732    1.72896    8.83939
       H     2.30633    0.73166    8.55505
       H     7.98503   13.24742    1.69145
       H     7.45301   12.16373    0.69856
       H     0.42565    4.14728    7.42225
       H     1.20055    4.49015    8.74625
       H     4.06074    6.13475   10.53171
       H     4.02593    7.14142   11.75031
       H    -0.00264    8.69510    4.88984
       H     0.75212    9.63684    3.89151
       H     2.21313   11.59750    1.07349
       H     1.31878   12.66943    1.80568
       H     8.12597   13.16012    3.80203
       H     7.27084   13.65265    5.04354
       H     8.60739    4.75442    1.55270
       H     7.99330    5.76566    0.50793
       H     9.53745    7.18341    6.63006
       H     8.51776    7.27029    7.80792
       H    11.08634   10.03944    5.48293
       H    12.44368   10.38536    6.06997
       H    10.16687    5.67806    7.74244
       H    11.30292    5.09792    6.89726
       H     3.53728   -0.44899    2.31875
       H     4.23790    0.87074    2.52420
       H     1.36197    8.46722    1.37583
       H     0.51554    8.08023    2.58000
       H    11.83072   12.14879   10.07318
       H    10.84628   12.62849   11.11481
       H     2.21573   11.52879    8.73438
       H     2.74954   10.30410    9.37824
       H     5.63626    2.73977    9.21521
       H     7.13767    2.59713    9.44471
       H     8.54504    9.07388    5.51902
       H     7.58255    9.84881    4.55556
       H     3.08811    8.43442    8.21722
       H     3.16190    8.10553    9.84459
       H    13.27356    9.55036   10.68789
       H    11.90111    9.03602   10.16495
       H     7.99929    6.15987    9.80614
       H     8.69820    4.78868    9.32146
       H     7.73433    4.68969   11.93413
       H     6.27578    4.13122   11.45842
       H     5.56950   10.83972   10.74318
       H     5.19497   10.14912   12.03090
       H     3.35793    2.91525   -0.26487
       H     3.63958    3.06923    1.26458
       H    12.53397    5.96634   11.76118
       H    13.11854    7.49029   11.74708
       H     5.95961    7.91865    5.30020
       H     6.35208    6.40668    5.36309
       H     6.03951    9.75453    2.62610
       H     4.78961    9.94611    3.46747
       H    12.54876    9.64730    1.07980
       H    12.42644    9.57990   -0.48519
       H     0.34183   11.18486    7.44981
       H     1.50259   10.39759    6.56095
       H     5.05999    6.58111    7.69214
       H     4.38000    5.25166    8.53238
       H     6.55901   12.72750    9.19893
       H     6.02560   11.83215    8.09497
       H     8.70833   11.88759   12.23769
       H     7.86905   10.59972   12.13287
       H    10.77603   12.77734    6.37767
       H     9.62098   13.29900    7.21020
       H    -0.03784    6.42357    7.77990
       H    -0.84723    7.66181    7.18815
       H    10.74747    6.21680   10.54926
       H    10.59852    4.83807   11.28879
       H    12.64306    3.23382    5.37896
       H    12.78773    4.77611    5.46673
       H     0.72134    3.12853   11.54973
       H    -0.50091    3.59161   12.32725
       H     1.72131   10.23631   12.29930
       H     1.67100   11.02714   10.99914
      Li    10.09471   10.37338    0.45405
      Li     5.97952    8.19646   10.54125
      Li    10.29383    9.40958    7.93419
      Li     1.23301    4.17378    1.55083
      Li    12.72785    6.82243    0.86530
      Li     6.28535    4.41670    0.43760
      Li     5.83744   12.34146    3.03655
      Li     8.43916   11.57340    5.96922
      Li     6.86690    4.49183    7.73252
      Li    13.13339   12.13588   12.36282
      Li    12.00215    4.31487    9.22647
      Li    10.01798    1.79451    5.27896
      Li     2.60233    8.37905    4.50037
      Li     1.53777    3.44006    4.86428
      Li     7.62279    2.13188   12.44501
      Li     7.18807    6.97735    2.94170
      Li     1.63875    0.99873    0.23738
      Li     4.03565   12.74099    9.82655
      Li     0.65898    8.79312    8.69738
      Li     4.85901    0.52667    7.20096
       O     0.91593    0.51251   11.73743
       O    10.97008    7.64717    1.41562
       O     3.79119   12.95739    5.86137
       O     5.97453    1.48307   13.12443
       O     2.20557    5.39570    0.20740
       O     6.40386    1.44717    6.30586
       O    12.49500    0.17233    0.34628
       O     3.43626    7.14397    3.34710
       O     2.63969    4.35120    3.14830
       O     2.71294    7.47291    6.27352
       O     2.84409    3.11800    6.24258
       O     8.60801   10.98601    8.03193
       O     1.69494    1.59819    4.02228
       O     9.56046    9.90819    2.17915
       O     7.59974    4.66247    5.94116
       O     9.46525    2.23125    7.26085
       O    12.01329    1.57880    5.14047
       O     4.84218    5.83389    0.53692
       O    11.64199    2.40615    9.84511
       O     0.62645    2.26485    1.65807
       O     4.29955   13.17727   11.71350
       O    12.87621    5.02235    1.97134
       O     7.16557    8.65161    1.82983
       O    10.37633    9.47856    9.97755
       O     9.62046    0.22806    2.55706
       O     9.49846    2.77025    3.79957
       O     3.13345   10.11865    5.53772
       O     3.27657    0.81549    8.57110
       O     7.19179   12.76555    1.42561
       O     0.35460    4.71171    8.25743
       O     4.26352    7.03060   10.80474
       O     0.73757    8.68634    4.26436
       O     2.08787   12.60017    1.16772
       O     7.32942   12.93493    4.32399
       O     7.78030    5.26595    1.36440
       O     9.38538    7.65003    7.48966
       O    11.57261    9.92236    6.31376
       O    10.80702    4.94137    7.72782
       O     4.01652    0.10876    3.02613
       O     0.45316    8.17752    1.61683
       O    11.43094   11.87248   10.87832
       O     2.71328   11.29438    9.59528
       O     6.51579    2.93092    8.75125
       O     8.44120    9.90262    5.01743
       O     2.70861    8.58908    9.09233
       O    12.95104    8.86508   10.11975
       O     7.93530    5.40304    9.11599
       O     7.03020    3.96355   12.00586
       O     5.84656   10.10299   11.29877
       O     3.52948    2.37563    0.55376
       O    13.09768    6.65550   12.25521
       O     6.18771    7.12801    4.70331
       O     5.57054   10.46619    3.21236
       O    12.22449   10.18224    0.29205
       O     0.76225   10.28055    7.26207
       O     4.80002    5.56427    7.63961
       O     5.76589   12.51148    8.71995
       O     8.51573   11.04265   12.68141
       O     9.84635   13.04636    6.33338
       O     0.02884    7.31539    7.27326
       O    11.24656    5.38115   10.75749
       O    13.29587    3.94071    5.60610
       O     0.47516    3.47165   12.41027
       O     1.05488   10.74610   11.71408